/*--------------------------------*- C++ -*----------------------------------*\
  =========                 |
  \\      /  F ield         | OpenFOAM: The Open Source CFD Toolbox
   \\    /   O peration     | Website:  https://openfoam.org
    \\  /    A nd           | Version:  7
     \\/     M anipulation  |
\*---------------------------------------------------------------------------*/
FoamFile
{
    version     2.0;
    format      ascii;
    class       polyBoundaryMesh;
    location    "constant/polyMesh";
    object      boundary;
}
// * * * * * * * * * * * * * * * * * * * * * * * * * * * * * * * * * * * * * //

4
(
    movingWall
    {
        type            wall;
        inGroups        List<word> 1(wall);
        nFaces          200;
        startFace       11200;
    }
    fixedWalls
    {
        type            wall;
        inGroups        List<word> 1(wall);
        nFaces          600;
        startFace       11400;
    }
    frontAndBack
    {
        type            empty;
        inGroups        List<word> 1(empty);
        nFaces          400;
        startFace       12000;
    }
    front
    {
        type            patch;
        nFaces          400;
        startFace       12400;
    }
)

// ************************************************************************* //
