/*--------------------------------*- C++ -*----------------------------------*\
  =========                 |
  \\      /  F ield         | OpenFOAM: The Open Source CFD Toolbox
   \\    /   O peration     | Website:  https://openfoam.org
    \\  /    A nd           | Version:  7
     \\/     M anipulation  |
\*---------------------------------------------------------------------------*/
FoamFile
{
    version     2.0;
    format      ascii;
    class       dictionary;
    object      topoSetDict;
}

// * * * * * * * * * * * * * * * * * * * * * * * * * * * * * * * * * * * * * //

#include "$FOAM_CASE/system/blockMeshDict"

actions
(

    {
        name    front;
        type    faceSet;
        action  new;
        source  boxToCell;
        sourceInfo
        {
            box (0 0 0.005)(.1 .1 0.01);
        }
    }

    {
        name    back;
        type    faceSet;
        action  new;
        source  boxToCell;
        sourceInfo
        {
          box (0 0 0.005)(.1 .1 0.01);
        }
    }



);

// ************************************************************************* //
